
---------- Begin Simulation Statistics ----------
final_tick                                  642036654                       # Number of ticks from beginning of simulation (restored from checkpoints and never reset)
host_inst_rate                                 154386                       # Simulator instruction rate (inst/s)
host_mem_usage                                 691080                       # Number of bytes of host memory used
host_op_rate                                   182111                       # Simulator op (including micro ops) rate (op/s)
host_seconds                                     5.53                       # Real time elapsed on the host
host_tick_rate                              116044419                       # Simulator tick rate (ticks/s)
sim_freq                                 1000000000000                       # Frequency of simulated ticks
sim_insts                                      854147                       # Number of instructions simulated
sim_ops                                       1007555                       # Number of ops (including micro ops) simulated
sim_seconds                                  0.000642                       # Number of seconds simulated
sim_ticks                                   642036654                       # Number of ticks simulated
system.cpu.branchPred.BTBCorrect                    0                       # Number of correct BTB predictions (this stat may not work properly.
system.cpu.branchPred.BTBHitPct             46.073379                       # BTB Hit Percentage
system.cpu.branchPred.BTBHits                   69105                       # Number of BTB hits
system.cpu.branchPred.BTBLookups               149989                       # Number of BTB lookups
system.cpu.branchPred.RASInCorrect                  7                       # Number of incorrect RAS predictions.
system.cpu.branchPred.condIncorrect              7724                       # Number of conditional branches incorrect
system.cpu.branchPred.condPredicted            117552                       # Number of conditional branches predicted
system.cpu.branchPred.indirectHits               9999                       # Number of indirect target hits.
system.cpu.branchPred.indirectLookups           15148                       # Number of indirect predictor lookups.
system.cpu.branchPred.indirectMisses             5149                       # Number of indirect misses.
system.cpu.branchPred.lookups                  182858                       # Number of BP lookups
system.cpu.branchPred.usedRAS                   20274                       # Number of times the RAS was used to get a target.
system.cpu.branchPredindirectMispredicted         1074                       # Number of mispredicted indirect branches.
system.cpu.committedInsts                      854147                       # Number of instructions committed
system.cpu.committedOps                       1007555                       # Number of ops (including micro ops) committed
system.cpu.cpi                               2.257267                       # CPI: cycles per instruction
system.cpu.discardedOps                         20071                       # Number of ops (including micro ops) which were discarded before commit
system.cpu.dtb.accesses                             0                       # DTB accesses
system.cpu.dtb.align_faults                         0                       # Number of TLB faults due to alignment restrictions
system.cpu.dtb.domain_faults                        0                       # Number of TLB faults due to domain restrictions
system.cpu.dtb.flush_entries                        0                       # Number of entries that have been flushed from TLB
system.cpu.dtb.flush_tlb                            0                       # Number of times complete TLB was flushed
system.cpu.dtb.flush_tlb_asid                       0                       # Number of times TLB was flushed by ASID
system.cpu.dtb.flush_tlb_mva                        0                       # Number of times TLB was flushed by MVA
system.cpu.dtb.flush_tlb_mva_asid                   0                       # Number of times TLB was flushed by MVA & ASID
system.cpu.dtb.hits                                 0                       # DTB hits
system.cpu.dtb.inst_accesses                        0                       # ITB inst accesses
system.cpu.dtb.inst_hits                            0                       # ITB inst hits
system.cpu.dtb.inst_misses                          0                       # ITB inst misses
system.cpu.dtb.misses                               0                       # DTB misses
system.cpu.dtb.perms_faults                         0                       # Number of TLB faults due to permissions restrictions
system.cpu.dtb.prefetch_faults                      0                       # Number of TLB faults due to prefetch
system.cpu.dtb.read_accesses                        0                       # DTB read accesses
system.cpu.dtb.read_hits                            0                       # DTB read hits
system.cpu.dtb.read_misses                          0                       # DTB read misses
system.cpu.dtb.stage2_mmu.stage2_tlb.accesses            0                       # DTB accesses
system.cpu.dtb.stage2_mmu.stage2_tlb.align_faults            0                       # Number of TLB faults due to alignment restrictions
system.cpu.dtb.stage2_mmu.stage2_tlb.domain_faults            0                       # Number of TLB faults due to domain restrictions
system.cpu.dtb.stage2_mmu.stage2_tlb.flush_entries            0                       # Number of entries that have been flushed from TLB
system.cpu.dtb.stage2_mmu.stage2_tlb.flush_tlb            0                       # Number of times complete TLB was flushed
system.cpu.dtb.stage2_mmu.stage2_tlb.flush_tlb_asid            0                       # Number of times TLB was flushed by ASID
system.cpu.dtb.stage2_mmu.stage2_tlb.flush_tlb_mva            0                       # Number of times TLB was flushed by MVA
system.cpu.dtb.stage2_mmu.stage2_tlb.flush_tlb_mva_asid            0                       # Number of times TLB was flushed by MVA & ASID
system.cpu.dtb.stage2_mmu.stage2_tlb.hits            0                       # DTB hits
system.cpu.dtb.stage2_mmu.stage2_tlb.inst_accesses            0                       # ITB inst accesses
system.cpu.dtb.stage2_mmu.stage2_tlb.inst_hits            0                       # ITB inst hits
system.cpu.dtb.stage2_mmu.stage2_tlb.inst_misses            0                       # ITB inst misses
system.cpu.dtb.stage2_mmu.stage2_tlb.misses            0                       # DTB misses
system.cpu.dtb.stage2_mmu.stage2_tlb.perms_faults            0                       # Number of TLB faults due to permissions restrictions
system.cpu.dtb.stage2_mmu.stage2_tlb.prefetch_faults            0                       # Number of TLB faults due to prefetch
system.cpu.dtb.stage2_mmu.stage2_tlb.read_accesses            0                       # DTB read accesses
system.cpu.dtb.stage2_mmu.stage2_tlb.read_hits            0                       # DTB read hits
system.cpu.dtb.stage2_mmu.stage2_tlb.read_misses            0                       # DTB read misses
system.cpu.dtb.stage2_mmu.stage2_tlb.walker.walkRequestOrigin_Requested::Data            0                       # Table walker requests started/completed, data/inst
system.cpu.dtb.stage2_mmu.stage2_tlb.walker.walkRequestOrigin_Requested::Inst            0                       # Table walker requests started/completed, data/inst
system.cpu.dtb.stage2_mmu.stage2_tlb.walker.walkRequestOrigin_Requested::total            0                       # Table walker requests started/completed, data/inst
system.cpu.dtb.stage2_mmu.stage2_tlb.walker.walkRequestOrigin_Completed::Data            0                       # Table walker requests started/completed, data/inst
system.cpu.dtb.stage2_mmu.stage2_tlb.walker.walkRequestOrigin_Completed::Inst            0                       # Table walker requests started/completed, data/inst
system.cpu.dtb.stage2_mmu.stage2_tlb.walker.walkRequestOrigin_Completed::total            0                       # Table walker requests started/completed, data/inst
system.cpu.dtb.stage2_mmu.stage2_tlb.walker.walkRequestOrigin::total            0                       # Table walker requests started/completed, data/inst
system.cpu.dtb.stage2_mmu.stage2_tlb.walker.walks            0                       # Table walker walks requested
system.cpu.dtb.stage2_mmu.stage2_tlb.write_accesses            0                       # DTB write accesses
system.cpu.dtb.stage2_mmu.stage2_tlb.write_hits            0                       # DTB write hits
system.cpu.dtb.stage2_mmu.stage2_tlb.write_misses            0                       # DTB write misses
system.cpu.dtb.walker.walkRequestOrigin_Requested::Data            0                       # Table walker requests started/completed, data/inst
system.cpu.dtb.walker.walkRequestOrigin_Requested::Inst            0                       # Table walker requests started/completed, data/inst
system.cpu.dtb.walker.walkRequestOrigin_Requested::total            0                       # Table walker requests started/completed, data/inst
system.cpu.dtb.walker.walkRequestOrigin_Completed::Data            0                       # Table walker requests started/completed, data/inst
system.cpu.dtb.walker.walkRequestOrigin_Completed::Inst            0                       # Table walker requests started/completed, data/inst
system.cpu.dtb.walker.walkRequestOrigin_Completed::total            0                       # Table walker requests started/completed, data/inst
system.cpu.dtb.walker.walkRequestOrigin::total            0                       # Table walker requests started/completed, data/inst
system.cpu.dtb.walker.walks                         0                       # Table walker walks requested
system.cpu.dtb.write_accesses                       0                       # DTB write accesses
system.cpu.dtb.write_hits                           0                       # DTB write hits
system.cpu.dtb.write_misses                         0                       # DTB write misses
system.cpu.fetch2.amo_instructions                  0                       # Number of memory atomic instructions successfully decoded
system.cpu.fetch2.fp_instructions                   0                       # Number of floating point instructions successfully decoded
system.cpu.fetch2.int_instructions             540504                       # Number of integer instructions successfully decoded
system.cpu.fetch2.load_instructions            130575                       # Number of memory load instructions successfully decoded
system.cpu.fetch2.store_instructions            60903                       # Number of memory store instructions successfully decoded
system.cpu.fetch2.vec_instructions                  0                       # Number of SIMD instructions successfully decoded
system.cpu.idleCycles                          739281                       # Total number of cycles that the object has spent stopped
system.cpu.ipc                               0.443014                       # IPC: instructions per cycle
system.cpu.itb.accesses                             0                       # DTB accesses
system.cpu.itb.align_faults                         0                       # Number of TLB faults due to alignment restrictions
system.cpu.itb.domain_faults                        0                       # Number of TLB faults due to domain restrictions
system.cpu.itb.flush_entries                        0                       # Number of entries that have been flushed from TLB
system.cpu.itb.flush_tlb                            0                       # Number of times complete TLB was flushed
system.cpu.itb.flush_tlb_asid                       0                       # Number of times TLB was flushed by ASID
system.cpu.itb.flush_tlb_mva                        0                       # Number of times TLB was flushed by MVA
system.cpu.itb.flush_tlb_mva_asid                   0                       # Number of times TLB was flushed by MVA & ASID
system.cpu.itb.hits                                 0                       # DTB hits
system.cpu.itb.inst_accesses                        0                       # ITB inst accesses
system.cpu.itb.inst_hits                            0                       # ITB inst hits
system.cpu.itb.inst_misses                          0                       # ITB inst misses
system.cpu.itb.misses                               0                       # DTB misses
system.cpu.itb.perms_faults                         0                       # Number of TLB faults due to permissions restrictions
system.cpu.itb.prefetch_faults                      0                       # Number of TLB faults due to prefetch
system.cpu.itb.read_accesses                        0                       # DTB read accesses
system.cpu.itb.read_hits                            0                       # DTB read hits
system.cpu.itb.read_misses                          0                       # DTB read misses
system.cpu.itb.stage2_mmu.stage2_tlb.accesses            0                       # DTB accesses
system.cpu.itb.stage2_mmu.stage2_tlb.align_faults            0                       # Number of TLB faults due to alignment restrictions
system.cpu.itb.stage2_mmu.stage2_tlb.domain_faults            0                       # Number of TLB faults due to domain restrictions
system.cpu.itb.stage2_mmu.stage2_tlb.flush_entries            0                       # Number of entries that have been flushed from TLB
system.cpu.itb.stage2_mmu.stage2_tlb.flush_tlb            0                       # Number of times complete TLB was flushed
system.cpu.itb.stage2_mmu.stage2_tlb.flush_tlb_asid            0                       # Number of times TLB was flushed by ASID
system.cpu.itb.stage2_mmu.stage2_tlb.flush_tlb_mva            0                       # Number of times TLB was flushed by MVA
system.cpu.itb.stage2_mmu.stage2_tlb.flush_tlb_mva_asid            0                       # Number of times TLB was flushed by MVA & ASID
system.cpu.itb.stage2_mmu.stage2_tlb.hits            0                       # DTB hits
system.cpu.itb.stage2_mmu.stage2_tlb.inst_accesses            0                       # ITB inst accesses
system.cpu.itb.stage2_mmu.stage2_tlb.inst_hits            0                       # ITB inst hits
system.cpu.itb.stage2_mmu.stage2_tlb.inst_misses            0                       # ITB inst misses
system.cpu.itb.stage2_mmu.stage2_tlb.misses            0                       # DTB misses
system.cpu.itb.stage2_mmu.stage2_tlb.perms_faults            0                       # Number of TLB faults due to permissions restrictions
system.cpu.itb.stage2_mmu.stage2_tlb.prefetch_faults            0                       # Number of TLB faults due to prefetch
system.cpu.itb.stage2_mmu.stage2_tlb.read_accesses            0                       # DTB read accesses
system.cpu.itb.stage2_mmu.stage2_tlb.read_hits            0                       # DTB read hits
system.cpu.itb.stage2_mmu.stage2_tlb.read_misses            0                       # DTB read misses
system.cpu.itb.stage2_mmu.stage2_tlb.walker.walkRequestOrigin_Requested::Data            0                       # Table walker requests started/completed, data/inst
system.cpu.itb.stage2_mmu.stage2_tlb.walker.walkRequestOrigin_Requested::Inst            0                       # Table walker requests started/completed, data/inst
system.cpu.itb.stage2_mmu.stage2_tlb.walker.walkRequestOrigin_Requested::total            0                       # Table walker requests started/completed, data/inst
system.cpu.itb.stage2_mmu.stage2_tlb.walker.walkRequestOrigin_Completed::Data            0                       # Table walker requests started/completed, data/inst
system.cpu.itb.stage2_mmu.stage2_tlb.walker.walkRequestOrigin_Completed::Inst            0                       # Table walker requests started/completed, data/inst
system.cpu.itb.stage2_mmu.stage2_tlb.walker.walkRequestOrigin_Completed::total            0                       # Table walker requests started/completed, data/inst
system.cpu.itb.stage2_mmu.stage2_tlb.walker.walkRequestOrigin::total            0                       # Table walker requests started/completed, data/inst
system.cpu.itb.stage2_mmu.stage2_tlb.walker.walks            0                       # Table walker walks requested
system.cpu.itb.stage2_mmu.stage2_tlb.write_accesses            0                       # DTB write accesses
system.cpu.itb.stage2_mmu.stage2_tlb.write_hits            0                       # DTB write hits
system.cpu.itb.stage2_mmu.stage2_tlb.write_misses            0                       # DTB write misses
system.cpu.itb.walker.walkRequestOrigin_Requested::Data            0                       # Table walker requests started/completed, data/inst
system.cpu.itb.walker.walkRequestOrigin_Requested::Inst            0                       # Table walker requests started/completed, data/inst
system.cpu.itb.walker.walkRequestOrigin_Requested::total            0                       # Table walker requests started/completed, data/inst
system.cpu.itb.walker.walkRequestOrigin_Completed::Data            0                       # Table walker requests started/completed, data/inst
system.cpu.itb.walker.walkRequestOrigin_Completed::Inst            0                       # Table walker requests started/completed, data/inst
system.cpu.itb.walker.walkRequestOrigin_Completed::total            0                       # Table walker requests started/completed, data/inst
system.cpu.itb.walker.walkRequestOrigin::total            0                       # Table walker requests started/completed, data/inst
system.cpu.itb.walker.walks                         0                       # Table walker walks requested
system.cpu.itb.write_accesses                       0                       # DTB write accesses
system.cpu.itb.write_hits                           0                       # DTB write hits
system.cpu.itb.write_misses                         0                       # DTB write misses
system.cpu.numCycles                          1928038                       # number of cpu cycles simulated
system.cpu.numFetchSuspends                         0                       # Number of times Execute suspended instruction fetching
system.cpu.numWorkItemsCompleted                    0                       # number of work items this cpu completed
system.cpu.numWorkItemsStarted                      0                       # number of work items this cpu started
system.cpu.op_class_0::No_OpClass                   0      0.00%      0.00% # Class of committed instruction
system.cpu.op_class_0::IntAlu                  679126     67.40%     67.40% # Class of committed instruction
system.cpu.op_class_0::IntMult                   9450      0.94%     68.34% # Class of committed instruction
system.cpu.op_class_0::IntDiv                       0      0.00%     68.34% # Class of committed instruction
system.cpu.op_class_0::FloatAdd                     0      0.00%     68.34% # Class of committed instruction
system.cpu.op_class_0::FloatCmp                     0      0.00%     68.34% # Class of committed instruction
system.cpu.op_class_0::FloatCvt                     0      0.00%     68.34% # Class of committed instruction
system.cpu.op_class_0::FloatMult                    0      0.00%     68.34% # Class of committed instruction
system.cpu.op_class_0::FloatMultAcc                 0      0.00%     68.34% # Class of committed instruction
system.cpu.op_class_0::FloatDiv                     0      0.00%     68.34% # Class of committed instruction
system.cpu.op_class_0::FloatMisc                    0      0.00%     68.34% # Class of committed instruction
system.cpu.op_class_0::FloatSqrt                    0      0.00%     68.34% # Class of committed instruction
system.cpu.op_class_0::SimdAdd                      0      0.00%     68.34% # Class of committed instruction
system.cpu.op_class_0::SimdAddAcc                   0      0.00%     68.34% # Class of committed instruction
system.cpu.op_class_0::SimdAlu                      0      0.00%     68.34% # Class of committed instruction
system.cpu.op_class_0::SimdCmp                      0      0.00%     68.34% # Class of committed instruction
system.cpu.op_class_0::SimdCvt                      0      0.00%     68.34% # Class of committed instruction
system.cpu.op_class_0::SimdMisc                     0      0.00%     68.34% # Class of committed instruction
system.cpu.op_class_0::SimdMult                     0      0.00%     68.34% # Class of committed instruction
system.cpu.op_class_0::SimdMultAcc                  0      0.00%     68.34% # Class of committed instruction
system.cpu.op_class_0::SimdShift                    0      0.00%     68.34% # Class of committed instruction
system.cpu.op_class_0::SimdShiftAcc                 0      0.00%     68.34% # Class of committed instruction
system.cpu.op_class_0::SimdDiv                      0      0.00%     68.34% # Class of committed instruction
system.cpu.op_class_0::SimdSqrt                     0      0.00%     68.34% # Class of committed instruction
system.cpu.op_class_0::SimdFloatAdd                 0      0.00%     68.34% # Class of committed instruction
system.cpu.op_class_0::SimdFloatAlu                 0      0.00%     68.34% # Class of committed instruction
system.cpu.op_class_0::SimdFloatCmp                 0      0.00%     68.34% # Class of committed instruction
system.cpu.op_class_0::SimdFloatCvt                 0      0.00%     68.34% # Class of committed instruction
system.cpu.op_class_0::SimdFloatDiv                 0      0.00%     68.34% # Class of committed instruction
system.cpu.op_class_0::SimdFloatMisc               21      0.00%     68.34% # Class of committed instruction
system.cpu.op_class_0::SimdFloatMult                0      0.00%     68.34% # Class of committed instruction
system.cpu.op_class_0::SimdFloatMultAcc             0      0.00%     68.34% # Class of committed instruction
system.cpu.op_class_0::SimdFloatSqrt                0      0.00%     68.34% # Class of committed instruction
system.cpu.op_class_0::SimdReduceAdd                0      0.00%     68.34% # Class of committed instruction
system.cpu.op_class_0::SimdReduceAlu                0      0.00%     68.34% # Class of committed instruction
system.cpu.op_class_0::SimdReduceCmp                0      0.00%     68.34% # Class of committed instruction
system.cpu.op_class_0::SimdFloatReduceAdd            0      0.00%     68.34% # Class of committed instruction
system.cpu.op_class_0::SimdFloatReduceCmp            0      0.00%     68.34% # Class of committed instruction
system.cpu.op_class_0::SimdAes                      0      0.00%     68.34% # Class of committed instruction
system.cpu.op_class_0::SimdAesMix                   0      0.00%     68.34% # Class of committed instruction
system.cpu.op_class_0::SimdSha1Hash                 0      0.00%     68.34% # Class of committed instruction
system.cpu.op_class_0::SimdSha1Hash2                0      0.00%     68.34% # Class of committed instruction
system.cpu.op_class_0::SimdSha256Hash               0      0.00%     68.34% # Class of committed instruction
system.cpu.op_class_0::SimdSha256Hash2              0      0.00%     68.34% # Class of committed instruction
system.cpu.op_class_0::SimdShaSigma2                0      0.00%     68.34% # Class of committed instruction
system.cpu.op_class_0::SimdShaSigma3                0      0.00%     68.34% # Class of committed instruction
system.cpu.op_class_0::SimdPredAlu                  0      0.00%     68.34% # Class of committed instruction
system.cpu.op_class_0::MemRead                 175798     17.45%     85.79% # Class of committed instruction
system.cpu.op_class_0::MemWrite                143160     14.21%    100.00% # Class of committed instruction
system.cpu.op_class_0::FloatMemRead                 0      0.00%    100.00% # Class of committed instruction
system.cpu.op_class_0::FloatMemWrite                0      0.00%    100.00% # Class of committed instruction
system.cpu.op_class_0::IprAccess                    0      0.00%    100.00% # Class of committed instruction
system.cpu.op_class_0::InstPrefetch                 0      0.00%    100.00% # Class of committed instruction
system.cpu.op_class_0::total                  1007555                       # Class of committed instruction
system.cpu.tickCycles                         1188757                       # Number of cycles that the object actually ticked
system.cpu.workload.numSyscalls                  1010                       # Number of system calls
system.membus.snoop_filter.hit_multi_requests            3                       # Number of requests hitting in the snoop filter with multiple (>1) holders of the requested data.
system.membus.snoop_filter.hit_multi_snoops            0                       # Number of snoops hitting in the snoop filter with multiple (>1) holders of the requested data.
system.membus.snoop_filter.hit_single_requests        11119                       # Number of requests hitting in the snoop filter with a single holder of the requested data.
system.membus.snoop_filter.hit_single_snoops            0                       # Number of snoops hitting in the snoop filter with a single holder of the requested data.
system.membus.snoop_filter.tot_requests         22699                       # Total number of requests made to the snoop filter.
system.membus.snoop_filter.tot_snoops               0                       # Total number of snoops made to the snoop filter.
system.membus.pwrStateResidencyTicks::UNDEFINED    642036654                       # Cumulative time (in ticks) in various power states
system.membus.trans_dist::ReadResp              11531                       # Transaction distribution
system.membus.trans_dist::WritebackClean        11097                       # Transaction distribution
system.membus.trans_dist::ReadExReq                71                       # Transaction distribution
system.membus.trans_dist::ReadExResp               71                       # Transaction distribution
system.membus.trans_dist::ReadCleanReq          11418                       # Transaction distribution
system.membus.trans_dist::ReadSharedReq           113                       # Transaction distribution
system.membus.pkt_count_system.cpu.icache.mem_side::system.mem_ctrls.port        33933                       # Packet count per connected master and slave (bytes)
system.membus.pkt_count_system.cpu.dcache.mem_side::system.mem_ctrls.port          368                       # Packet count per connected master and slave (bytes)
system.membus.pkt_count::total                  34301                       # Packet count per connected master and slave (bytes)
system.membus.pkt_size_system.cpu.icache.mem_side::system.mem_ctrls.port      1440960                       # Cumulative packet size per connected master and slave (bytes)
system.membus.pkt_size_system.cpu.dcache.mem_side::system.mem_ctrls.port        11776                       # Cumulative packet size per connected master and slave (bytes)
system.membus.pkt_size::total                 1452736                       # Cumulative packet size per connected master and slave (bytes)
system.membus.snoops                                0                       # Total snoops (count)
system.membus.snoopTraffic                          0                       # Total snoop traffic (bytes)
system.membus.snoop_fanout::samples             11602                       # Request fanout histogram
system.membus.snoop_fanout::mean             0.002155                       # Request fanout histogram
system.membus.snoop_fanout::stdev            0.046372                       # Request fanout histogram
system.membus.snoop_fanout::underflows              0      0.00%      0.00% # Request fanout histogram
system.membus.snoop_fanout::0                   11577     99.78%     99.78% # Request fanout histogram
system.membus.snoop_fanout::1                      25      0.22%    100.00% # Request fanout histogram
system.membus.snoop_fanout::2                       0      0.00%    100.00% # Request fanout histogram
system.membus.snoop_fanout::overflows               0      0.00%    100.00% # Request fanout histogram
system.membus.snoop_fanout::min_value               0                       # Request fanout histogram
system.membus.snoop_fanout::max_value               1                       # Request fanout histogram
system.membus.snoop_fanout::total               11602                       # Request fanout histogram
system.membus.reqLayer0.occupancy            73486492                       # Layer occupancy (ticks)
system.membus.reqLayer0.utilization              11.4                       # Layer utilization (%)
system.membus.respLayer1.occupancy           57224461                       # Layer occupancy (ticks)
system.membus.respLayer1.utilization              8.9                       # Layer utilization (%)
system.membus.respLayer2.occupancy             993481                       # Layer occupancy (ticks)
system.membus.respLayer2.utilization              0.2                       # Layer utilization (%)
system.voltage_domain.voltage                       1                       # Voltage in Volts
system.clk_domain.clock                          1000                       # Clock period in ticks
system.cpu_voltage_domain.voltage                   1                       # Voltage in Volts
system.mem_ctrls.pwrStateResidencyTicks::UNDEFINED    642036654                       # Cumulative time (in ticks) in various power states
system.mem_ctrls.bytes_read::.cpu.inst         730752                       # Number of bytes read from this memory
system.mem_ctrls.bytes_read::.cpu.data          11776                       # Number of bytes read from this memory
system.mem_ctrls.bytes_read::total             742528                       # Number of bytes read from this memory
system.mem_ctrls.bytes_inst_read::.cpu.inst       730752                       # Number of instructions bytes read from this memory
system.mem_ctrls.bytes_inst_read::total        730752                       # Number of instructions bytes read from this memory
system.mem_ctrls.num_reads::.cpu.inst           11418                       # Number of read requests responded to by this memory
system.mem_ctrls.num_reads::.cpu.data             184                       # Number of read requests responded to by this memory
system.mem_ctrls.num_reads::total               11602                       # Number of read requests responded to by this memory
system.mem_ctrls.bw_read::.cpu.inst        1138178008                       # Total read bandwidth from this memory (bytes/s)
system.mem_ctrls.bw_read::.cpu.data          18341632                       # Total read bandwidth from this memory (bytes/s)
system.mem_ctrls.bw_read::total            1156519640                       # Total read bandwidth from this memory (bytes/s)
system.mem_ctrls.bw_inst_read::.cpu.inst   1138178008                       # Instruction read bandwidth from this memory (bytes/s)
system.mem_ctrls.bw_inst_read::total       1138178008                       # Instruction read bandwidth from this memory (bytes/s)
system.mem_ctrls.bw_total::.cpu.inst       1138178008                       # Total bandwidth to/from this memory (bytes/s)
system.mem_ctrls.bw_total::.cpu.data         18341632                       # Total bandwidth to/from this memory (bytes/s)
system.mem_ctrls.bw_total::total           1156519640                       # Total bandwidth to/from this memory (bytes/s)
system.mem_ctrls.avgPriority_.writebacks::samples       100.00                       # Average QoS priority value for accepted requests
system.mem_ctrls.avgPriority_.cpu.inst::samples       408.00                       # Average QoS priority value for accepted requests
system.mem_ctrls.avgPriority_.cpu.data::samples       184.00                       # Average QoS priority value for accepted requests
system.mem_ctrls.priorityMinLatency      0.000000018750                       # per QoS priority minimum request to response latency (s)
system.mem_ctrls.priorityMaxLatency      0.001229857556                       # per QoS priority maximum request to response latency (s)
system.mem_ctrls.numReadWriteTurnArounds            5                       # Number of turnarounds from READ to WRITE
system.mem_ctrls.numWriteReadTurnArounds            5                       # Number of turnarounds from WRITE to READ
system.mem_ctrls.numStayReadState               12427                       # Number of times bus staying in READ state
system.mem_ctrls.numStayWriteState                 75                       # Number of times bus staying in WRITE state
system.mem_ctrls.readReqs                       11602                       # Number of read requests accepted
system.mem_ctrls.writeReqs                      11094                       # Number of write requests accepted
system.mem_ctrls.readBursts                     11602                       # Number of DRAM read bursts, including those serviced by the write queue
system.mem_ctrls.writeBursts                    11094                       # Number of DRAM write bursts, including those merged in the write queue
system.mem_ctrls.servicedByWrQ                  11010                       # Number of DRAM read bursts serviced by the write queue
system.mem_ctrls.mergedWrBursts                 10994                       # Number of DRAM write bursts merged with an existing one
system.mem_ctrls.neitherReadNorWriteReqs            0                       # Number of requests that are neither read nor write
system.mem_ctrls.perBankRdBursts::0                62                       # Per bank write bursts
system.mem_ctrls.perBankRdBursts::1                 2                       # Per bank write bursts
system.mem_ctrls.perBankRdBursts::2                24                       # Per bank write bursts
system.mem_ctrls.perBankRdBursts::3                49                       # Per bank write bursts
system.mem_ctrls.perBankRdBursts::4                15                       # Per bank write bursts
system.mem_ctrls.perBankRdBursts::5                29                       # Per bank write bursts
system.mem_ctrls.perBankRdBursts::6                50                       # Per bank write bursts
system.mem_ctrls.perBankRdBursts::7                47                       # Per bank write bursts
system.mem_ctrls.perBankRdBursts::8                76                       # Per bank write bursts
system.mem_ctrls.perBankRdBursts::9                86                       # Per bank write bursts
system.mem_ctrls.perBankRdBursts::10               43                       # Per bank write bursts
system.mem_ctrls.perBankRdBursts::11               79                       # Per bank write bursts
system.mem_ctrls.perBankRdBursts::12               13                       # Per bank write bursts
system.mem_ctrls.perBankRdBursts::13               11                       # Per bank write bursts
system.mem_ctrls.perBankRdBursts::14                6                       # Per bank write bursts
system.mem_ctrls.perBankRdBursts::15                0                       # Per bank write bursts
system.mem_ctrls.perBankWrBursts::0                10                       # Per bank write bursts
system.mem_ctrls.perBankWrBursts::1                 0                       # Per bank write bursts
system.mem_ctrls.perBankWrBursts::2                 1                       # Per bank write bursts
system.mem_ctrls.perBankWrBursts::3                 3                       # Per bank write bursts
system.mem_ctrls.perBankWrBursts::4                 1                       # Per bank write bursts
system.mem_ctrls.perBankWrBursts::5                 2                       # Per bank write bursts
system.mem_ctrls.perBankWrBursts::6                 6                       # Per bank write bursts
system.mem_ctrls.perBankWrBursts::7                12                       # Per bank write bursts
system.mem_ctrls.perBankWrBursts::8                17                       # Per bank write bursts
system.mem_ctrls.perBankWrBursts::9                10                       # Per bank write bursts
system.mem_ctrls.perBankWrBursts::10                0                       # Per bank write bursts
system.mem_ctrls.perBankWrBursts::11               18                       # Per bank write bursts
system.mem_ctrls.perBankWrBursts::12                0                       # Per bank write bursts
system.mem_ctrls.perBankWrBursts::13                0                       # Per bank write bursts
system.mem_ctrls.perBankWrBursts::14                0                       # Per bank write bursts
system.mem_ctrls.perBankWrBursts::15                0                       # Per bank write bursts
system.mem_ctrls.avgRdQLen                       1.01                       # Average read queue length when enqueuing
system.mem_ctrls.avgWrQLen                      30.00                       # Average write queue length when enqueuing
system.mem_ctrls.totQLat                      4128673                       # Total ticks spent queuing
system.mem_ctrls.totBusLat                    2960000                       # Total ticks spent in databus transfers
system.mem_ctrls.totMemAccLat                15228673                       # Total ticks spent from burst creation until serviced by the DRAM
system.mem_ctrls.avgQLat                      6974.11                       # Average queueing delay per DRAM burst
system.mem_ctrls.avgBusLat                    5000.00                       # Average bus latency per DRAM burst
system.mem_ctrls.avgMemAccLat                25724.11                       # Average memory access latency per DRAM burst
system.mem_ctrls.numRdRetry                         0                       # Number of times read queue was full causing retry
system.mem_ctrls.numWrRetry                         0                       # Number of times write queue was full causing retry
system.mem_ctrls.readRowHits                      477                       # Number of row buffer hits during reads
system.mem_ctrls.writeRowHits                      65                       # Number of row buffer hits during writes
system.mem_ctrls.readRowHitRate                 80.57                       # Row buffer hit rate for reads
system.mem_ctrls.writeRowHitRate                65.00                       # Row buffer hit rate for writes
system.mem_ctrls.readPktSize::0                     0                       # Read request sizes (log2)
system.mem_ctrls.readPktSize::1                     0                       # Read request sizes (log2)
system.mem_ctrls.readPktSize::2                     0                       # Read request sizes (log2)
system.mem_ctrls.readPktSize::3                     0                       # Read request sizes (log2)
system.mem_ctrls.readPktSize::4                     0                       # Read request sizes (log2)
system.mem_ctrls.readPktSize::5                     0                       # Read request sizes (log2)
system.mem_ctrls.readPktSize::6                 11602                       # Read request sizes (log2)
system.mem_ctrls.writePktSize::0                    0                       # Write request sizes (log2)
system.mem_ctrls.writePktSize::1                    0                       # Write request sizes (log2)
system.mem_ctrls.writePktSize::2                    0                       # Write request sizes (log2)
system.mem_ctrls.writePktSize::3                    0                       # Write request sizes (log2)
system.mem_ctrls.writePktSize::4                    0                       # Write request sizes (log2)
system.mem_ctrls.writePktSize::5                    0                       # Write request sizes (log2)
system.mem_ctrls.writePktSize::6                11094                       # Write request sizes (log2)
system.mem_ctrls.rdQLenPdf::0                     488                       # What read queue length does an incoming req see
system.mem_ctrls.rdQLenPdf::1                      97                       # What read queue length does an incoming req see
system.mem_ctrls.rdQLenPdf::2                       7                       # What read queue length does an incoming req see
system.mem_ctrls.rdQLenPdf::3                       0                       # What read queue length does an incoming req see
system.mem_ctrls.rdQLenPdf::4                       0                       # What read queue length does an incoming req see
system.mem_ctrls.rdQLenPdf::5                       0                       # What read queue length does an incoming req see
system.mem_ctrls.rdQLenPdf::6                       0                       # What read queue length does an incoming req see
system.mem_ctrls.rdQLenPdf::7                       0                       # What read queue length does an incoming req see
system.mem_ctrls.rdQLenPdf::8                       0                       # What read queue length does an incoming req see
system.mem_ctrls.rdQLenPdf::9                       0                       # What read queue length does an incoming req see
system.mem_ctrls.rdQLenPdf::10                      0                       # What read queue length does an incoming req see
system.mem_ctrls.rdQLenPdf::11                      0                       # What read queue length does an incoming req see
system.mem_ctrls.rdQLenPdf::12                      0                       # What read queue length does an incoming req see
system.mem_ctrls.rdQLenPdf::13                      0                       # What read queue length does an incoming req see
system.mem_ctrls.rdQLenPdf::14                      0                       # What read queue length does an incoming req see
system.mem_ctrls.rdQLenPdf::15                      0                       # What read queue length does an incoming req see
system.mem_ctrls.rdQLenPdf::16                      0                       # What read queue length does an incoming req see
system.mem_ctrls.rdQLenPdf::17                      0                       # What read queue length does an incoming req see
system.mem_ctrls.rdQLenPdf::18                      0                       # What read queue length does an incoming req see
system.mem_ctrls.rdQLenPdf::19                      0                       # What read queue length does an incoming req see
system.mem_ctrls.rdQLenPdf::20                      0                       # What read queue length does an incoming req see
system.mem_ctrls.rdQLenPdf::21                      0                       # What read queue length does an incoming req see
system.mem_ctrls.rdQLenPdf::22                      0                       # What read queue length does an incoming req see
system.mem_ctrls.rdQLenPdf::23                      0                       # What read queue length does an incoming req see
system.mem_ctrls.rdQLenPdf::24                      0                       # What read queue length does an incoming req see
system.mem_ctrls.rdQLenPdf::25                      0                       # What read queue length does an incoming req see
system.mem_ctrls.rdQLenPdf::26                      0                       # What read queue length does an incoming req see
system.mem_ctrls.rdQLenPdf::27                      0                       # What read queue length does an incoming req see
system.mem_ctrls.rdQLenPdf::28                      0                       # What read queue length does an incoming req see
system.mem_ctrls.rdQLenPdf::29                      0                       # What read queue length does an incoming req see
system.mem_ctrls.rdQLenPdf::30                      0                       # What read queue length does an incoming req see
system.mem_ctrls.rdQLenPdf::31                      0                       # What read queue length does an incoming req see
system.mem_ctrls.wrQLenPdf::0                       1                       # What write queue length does an incoming req see
system.mem_ctrls.wrQLenPdf::1                       1                       # What write queue length does an incoming req see
system.mem_ctrls.wrQLenPdf::2                       1                       # What write queue length does an incoming req see
system.mem_ctrls.wrQLenPdf::3                       1                       # What write queue length does an incoming req see
system.mem_ctrls.wrQLenPdf::4                       1                       # What write queue length does an incoming req see
system.mem_ctrls.wrQLenPdf::5                       1                       # What write queue length does an incoming req see
system.mem_ctrls.wrQLenPdf::6                       1                       # What write queue length does an incoming req see
system.mem_ctrls.wrQLenPdf::7                       1                       # What write queue length does an incoming req see
system.mem_ctrls.wrQLenPdf::8                       1                       # What write queue length does an incoming req see
system.mem_ctrls.wrQLenPdf::9                       1                       # What write queue length does an incoming req see
system.mem_ctrls.wrQLenPdf::10                      1                       # What write queue length does an incoming req see
system.mem_ctrls.wrQLenPdf::11                      1                       # What write queue length does an incoming req see
system.mem_ctrls.wrQLenPdf::12                      1                       # What write queue length does an incoming req see
system.mem_ctrls.wrQLenPdf::13                      1                       # What write queue length does an incoming req see
system.mem_ctrls.wrQLenPdf::14                      1                       # What write queue length does an incoming req see
system.mem_ctrls.wrQLenPdf::15                      1                       # What write queue length does an incoming req see
system.mem_ctrls.wrQLenPdf::16                      1                       # What write queue length does an incoming req see
system.mem_ctrls.wrQLenPdf::17                      6                       # What write queue length does an incoming req see
system.mem_ctrls.wrQLenPdf::18                      6                       # What write queue length does an incoming req see
system.mem_ctrls.wrQLenPdf::19                      6                       # What write queue length does an incoming req see
system.mem_ctrls.wrQLenPdf::20                      5                       # What write queue length does an incoming req see
system.mem_ctrls.wrQLenPdf::21                      5                       # What write queue length does an incoming req see
system.mem_ctrls.wrQLenPdf::22                      5                       # What write queue length does an incoming req see
system.mem_ctrls.wrQLenPdf::23                      5                       # What write queue length does an incoming req see
system.mem_ctrls.wrQLenPdf::24                      5                       # What write queue length does an incoming req see
system.mem_ctrls.wrQLenPdf::25                      5                       # What write queue length does an incoming req see
system.mem_ctrls.wrQLenPdf::26                      5                       # What write queue length does an incoming req see
system.mem_ctrls.wrQLenPdf::27                      5                       # What write queue length does an incoming req see
system.mem_ctrls.wrQLenPdf::28                      5                       # What write queue length does an incoming req see
system.mem_ctrls.wrQLenPdf::29                      5                       # What write queue length does an incoming req see
system.mem_ctrls.wrQLenPdf::30                      5                       # What write queue length does an incoming req see
system.mem_ctrls.wrQLenPdf::31                      5                       # What write queue length does an incoming req see
system.mem_ctrls.wrQLenPdf::32                      5                       # What write queue length does an incoming req see
system.mem_ctrls.wrQLenPdf::33                      0                       # What write queue length does an incoming req see
system.mem_ctrls.wrQLenPdf::34                      0                       # What write queue length does an incoming req see
system.mem_ctrls.wrQLenPdf::35                      0                       # What write queue length does an incoming req see
system.mem_ctrls.wrQLenPdf::36                      0                       # What write queue length does an incoming req see
system.mem_ctrls.wrQLenPdf::37                      0                       # What write queue length does an incoming req see
system.mem_ctrls.wrQLenPdf::38                      0                       # What write queue length does an incoming req see
system.mem_ctrls.wrQLenPdf::39                      0                       # What write queue length does an incoming req see
system.mem_ctrls.wrQLenPdf::40                      0                       # What write queue length does an incoming req see
system.mem_ctrls.wrQLenPdf::41                      0                       # What write queue length does an incoming req see
system.mem_ctrls.wrQLenPdf::42                      0                       # What write queue length does an incoming req see
system.mem_ctrls.wrQLenPdf::43                      0                       # What write queue length does an incoming req see
system.mem_ctrls.wrQLenPdf::44                      0                       # What write queue length does an incoming req see
system.mem_ctrls.wrQLenPdf::45                      0                       # What write queue length does an incoming req see
system.mem_ctrls.wrQLenPdf::46                      0                       # What write queue length does an incoming req see
system.mem_ctrls.wrQLenPdf::47                      0                       # What write queue length does an incoming req see
system.mem_ctrls.wrQLenPdf::48                      0                       # What write queue length does an incoming req see
system.mem_ctrls.wrQLenPdf::49                      0                       # What write queue length does an incoming req see
system.mem_ctrls.wrQLenPdf::50                      0                       # What write queue length does an incoming req see
system.mem_ctrls.wrQLenPdf::51                      0                       # What write queue length does an incoming req see
system.mem_ctrls.wrQLenPdf::52                      0                       # What write queue length does an incoming req see
system.mem_ctrls.wrQLenPdf::53                      0                       # What write queue length does an incoming req see
system.mem_ctrls.wrQLenPdf::54                      0                       # What write queue length does an incoming req see
system.mem_ctrls.wrQLenPdf::55                      0                       # What write queue length does an incoming req see
system.mem_ctrls.wrQLenPdf::56                      0                       # What write queue length does an incoming req see
system.mem_ctrls.wrQLenPdf::57                      0                       # What write queue length does an incoming req see
system.mem_ctrls.wrQLenPdf::58                      0                       # What write queue length does an incoming req see
system.mem_ctrls.wrQLenPdf::59                      0                       # What write queue length does an incoming req see
system.mem_ctrls.wrQLenPdf::60                      0                       # What write queue length does an incoming req see
system.mem_ctrls.wrQLenPdf::61                      0                       # What write queue length does an incoming req see
system.mem_ctrls.wrQLenPdf::62                      0                       # What write queue length does an incoming req see
system.mem_ctrls.wrQLenPdf::63                      0                       # What write queue length does an incoming req see
system.mem_ctrls.bytesPerActivate::samples          120                       # Bytes accessed per row activation
system.mem_ctrls.bytesPerActivate::mean    342.400000                       # Bytes accessed per row activation
system.mem_ctrls.bytesPerActivate::gmean   239.969758                       # Bytes accessed per row activation
system.mem_ctrls.bytesPerActivate::stdev   293.185071                       # Bytes accessed per row activation
system.mem_ctrls.bytesPerActivate::0-127           22     18.33%     18.33% # Bytes accessed per row activation
system.mem_ctrls.bytesPerActivate::128-255           34     28.33%     46.67% # Bytes accessed per row activation
system.mem_ctrls.bytesPerActivate::256-383           24     20.00%     66.67% # Bytes accessed per row activation
system.mem_ctrls.bytesPerActivate::384-511           12     10.00%     76.67% # Bytes accessed per row activation
system.mem_ctrls.bytesPerActivate::512-639            8      6.67%     83.33% # Bytes accessed per row activation
system.mem_ctrls.bytesPerActivate::640-767            4      3.33%     86.67% # Bytes accessed per row activation
system.mem_ctrls.bytesPerActivate::768-895            3      2.50%     89.17% # Bytes accessed per row activation
system.mem_ctrls.bytesPerActivate::896-1023            1      0.83%     90.00% # Bytes accessed per row activation
system.mem_ctrls.bytesPerActivate::1024-1151           12     10.00%    100.00% # Bytes accessed per row activation
system.mem_ctrls.bytesPerActivate::total          120                       # Bytes accessed per row activation
system.mem_ctrls.rdPerTurnAround::samples            5                       # Reads before turning the bus around for writes
system.mem_ctrls.rdPerTurnAround::mean     117.200000                       # Reads before turning the bus around for writes
system.mem_ctrls.rdPerTurnAround::gmean     64.244222                       # Reads before turning the bus around for writes
system.mem_ctrls.rdPerTurnAround::stdev    171.089743                       # Reads before turning the bus around for writes
system.mem_ctrls.rdPerTurnAround::16-31             1     20.00%     20.00% # Reads before turning the bus around for writes
system.mem_ctrls.rdPerTurnAround::32-47             2     40.00%     60.00% # Reads before turning the bus around for writes
system.mem_ctrls.rdPerTurnAround::48-63             1     20.00%     80.00% # Reads before turning the bus around for writes
system.mem_ctrls.rdPerTurnAround::416-431            1     20.00%    100.00% # Reads before turning the bus around for writes
system.mem_ctrls.rdPerTurnAround::total             5                       # Reads before turning the bus around for writes
system.mem_ctrls.wrPerTurnAround::samples            5                       # Writes before turning the bus around for reads
system.mem_ctrls.wrPerTurnAround::mean             16                       # Writes before turning the bus around for reads
system.mem_ctrls.wrPerTurnAround::gmean     16.000000                       # Writes before turning the bus around for reads
system.mem_ctrls.wrPerTurnAround::16                5    100.00%    100.00% # Writes before turning the bus around for reads
system.mem_ctrls.wrPerTurnAround::total             5                       # Writes before turning the bus around for reads
system.mem_ctrls.bytesReadDRAM                  37888                       # Total number of bytes read from DRAM
system.mem_ctrls.bytesReadWrQ                  704640                       # Total number of bytes read from write queue
system.mem_ctrls.bytesWritten                    5120                       # Total number of bytes written to DRAM
system.mem_ctrls.bytesReadSys                  742528                       # Total read bytes from the system interface side
system.mem_ctrls.bytesWrittenSys               710016                       # Total written bytes from the system interface side
system.mem_ctrls.avgRdBW                        59.01                       # Average DRAM read bandwidth in MiByte/s
system.mem_ctrls.avgWrBW                         7.97                       # Average achieved write bandwidth in MiByte/s
system.mem_ctrls.avgRdBWSys                   1156.52                       # Average system read bandwidth in MiByte/s
system.mem_ctrls.avgWrBWSys                   1105.88                       # Average system write bandwidth in MiByte/s
system.mem_ctrls.peakBW                      12800.00                       # Theoretical peak bandwidth in MiByte/s
system.mem_ctrls.busUtil                         0.52                       # Data bus utilization in percentage
system.mem_ctrls.busUtilRead                     0.46                       # Data bus utilization in percentage for reads
system.mem_ctrls.busUtilWrite                    0.06                       # Data bus utilization in percentage for writes
system.mem_ctrls.totGap                     641980044                       # Total gap between requests
system.mem_ctrls.avgGap                      28286.04                       # Average gap between requests
system.mem_ctrls.masterReadBytes::.cpu.inst        26112                       # Per-master bytes read from memory
system.mem_ctrls.masterReadBytes::.cpu.data        11776                       # Per-master bytes read from memory
system.mem_ctrls.masterWriteBytes::.writebacks         5120                       # Per-master bytes write to memory
system.mem_ctrls.masterReadRate::.cpu.inst 40670575.172488518059                       # Per-master bytes read from memory rate (Bytes/sec)
system.mem_ctrls.masterReadRate::.cpu.data 18341631.940534036607                       # Per-master bytes read from memory rate (Bytes/sec)
system.mem_ctrls.masterWriteRate::.writebacks 7974622.582840885967                       # Per-master bytes write to memory rate (Bytes/sec)
system.mem_ctrls.masterReadAccesses::.cpu.inst        11418                       # Per-master read serviced memory accesses
system.mem_ctrls.masterReadAccesses::.cpu.data          184                       # Per-master read serviced memory accesses
system.mem_ctrls.masterWriteAccesses::.writebacks        11094                       # Per-master write serviced memory accesses
system.mem_ctrls.masterReadTotalLat::.cpu.inst     10503879                       # Per-master read total memory access latency
system.mem_ctrls.masterReadTotalLat::.cpu.data      4724794                       # Per-master read total memory access latency
system.mem_ctrls.masterWriteTotalLat::.writebacks  17990574894                       # Per-master write total memory access latency
system.mem_ctrls.masterReadAvgLat::.cpu.inst       919.94                       # Per-master read average memory access latency
system.mem_ctrls.masterReadAvgLat::.cpu.data     25678.23                       # Per-master read average memory access latency
system.mem_ctrls.masterWriteAvgLat::.writebacks   1621649.08                       # Per-master write average memory access latency
system.mem_ctrls.pageHitRate                    78.32                       # Row buffer hit rate, read and write combined
system.mem_ctrls.rank1.actEnergy               528360                       # Energy for activate commands per rank (pJ)
system.mem_ctrls.rank1.preEnergy               261855                       # Energy for precharge commands per rank (pJ)
system.mem_ctrls.rank1.readEnergy             2241960                       # Energy for read commands per rank (pJ)
system.mem_ctrls.rank1.writeEnergy             234900                       # Energy for write commands per rank (pJ)
system.mem_ctrls.rank1.refreshEnergy     50400480.000000                       # Energy for refresh commands per rank (pJ)
system.mem_ctrls.rank1.actBackEnergy         24432480                       # Energy for active background per rank (pJ)
system.mem_ctrls.rank1.preBackEnergy        225967680                       # Energy for precharge background per rank (pJ)
system.mem_ctrls.rank1.actPowerDownEnergy            0                       # Energy for active power-down per rank (pJ)
system.mem_ctrls.rank1.prePowerDownEnergy            0                       # Energy for precharge power-down per rank (pJ)
system.mem_ctrls.rank1.selfRefreshEnergy            0                       # Energy for self refresh per rank (pJ)
system.mem_ctrls.rank1.totalEnergy          304067715                       # Total energy per rank (pJ)
system.mem_ctrls.rank1.averagePower        473.598685                       # Core power per rank (mW)
system.mem_ctrls.rank1.totalIdleTime                0                       # Total Idle time Per DRAM Rank
system.mem_ctrls.rank1.memoryStateTime::IDLE    587260243                       # Time in different power states
system.mem_ctrls.rank1.memoryStateTime::REF     21320000                       # Time in different power states
system.mem_ctrls.rank1.memoryStateTime::SREF            0                       # Time in different power states
system.mem_ctrls.rank1.memoryStateTime::PRE_PDN            0                       # Time in different power states
system.mem_ctrls.rank1.memoryStateTime::ACT     33456411                       # Time in different power states
system.mem_ctrls.rank1.memoryStateTime::ACT_PDN            0                       # Time in different power states
system.mem_ctrls.rank0.actEnergy               399840                       # Energy for activate commands per rank (pJ)
system.mem_ctrls.rank0.preEnergy               193545                       # Energy for precharge commands per rank (pJ)
system.mem_ctrls.rank0.readEnergy             1984920                       # Energy for read commands per rank (pJ)
system.mem_ctrls.rank0.writeEnergy             182700                       # Energy for write commands per rank (pJ)
system.mem_ctrls.rank0.refreshEnergy     50400480.000000                       # Energy for refresh commands per rank (pJ)
system.mem_ctrls.rank0.actBackEnergy         23607690                       # Energy for active background per rank (pJ)
system.mem_ctrls.rank0.preBackEnergy        226662240                       # Energy for precharge background per rank (pJ)
system.mem_ctrls.rank0.actPowerDownEnergy            0                       # Energy for active power-down per rank (pJ)
system.mem_ctrls.rank0.prePowerDownEnergy            0                       # Energy for precharge power-down per rank (pJ)
system.mem_ctrls.rank0.selfRefreshEnergy            0                       # Energy for self refresh per rank (pJ)
system.mem_ctrls.rank0.totalEnergy          303431415                       # Total energy per rank (pJ)
system.mem_ctrls.rank0.averagePower        472.607620                       # Core power per rank (mW)
system.mem_ctrls.rank0.totalIdleTime                0                       # Total Idle time Per DRAM Rank
system.mem_ctrls.rank0.memoryStateTime::IDLE    589038409                       # Time in different power states
system.mem_ctrls.rank0.memoryStateTime::REF     21320000                       # Time in different power states
system.mem_ctrls.rank0.memoryStateTime::SREF            0                       # Time in different power states
system.mem_ctrls.rank0.memoryStateTime::PRE_PDN            0                       # Time in different power states
system.mem_ctrls.rank0.memoryStateTime::ACT     31678245                       # Time in different power states
system.mem_ctrls.rank0.memoryStateTime::ACT_PDN            0                       # Time in different power states
system.cpu_clk_domain.clock                       333                       # Clock period in ticks
system.cpu.pwrStateResidencyTicks::ON       642036654                       # Cumulative time (in ticks) in various power states
system.cpu.icache.pwrStateResidencyTicks::UNDEFINED    642036654                       # Cumulative time (in ticks) in various power states
system.cpu.icache.demand_hits::.cpu.inst       271979                       # number of demand (read+write) hits
system.cpu.icache.demand_hits::total           271979                       # number of demand (read+write) hits
system.cpu.icache.overall_hits::.cpu.inst       271979                       # number of overall hits
system.cpu.icache.overall_hits::total          271979                       # number of overall hits
system.cpu.icache.demand_misses::.cpu.inst        11418                       # number of demand (read+write) misses
system.cpu.icache.demand_misses::total          11418                       # number of demand (read+write) misses
system.cpu.icache.overall_misses::.cpu.inst        11418                       # number of overall misses
system.cpu.icache.overall_misses::total         11418                       # number of overall misses
system.cpu.icache.demand_miss_latency::.cpu.inst    276330726                       # number of demand (read+write) miss cycles
system.cpu.icache.demand_miss_latency::total    276330726                       # number of demand (read+write) miss cycles
system.cpu.icache.overall_miss_latency::.cpu.inst    276330726                       # number of overall miss cycles
system.cpu.icache.overall_miss_latency::total    276330726                       # number of overall miss cycles
system.cpu.icache.demand_accesses::.cpu.inst       283397                       # number of demand (read+write) accesses
system.cpu.icache.demand_accesses::total       283397                       # number of demand (read+write) accesses
system.cpu.icache.overall_accesses::.cpu.inst       283397                       # number of overall (read+write) accesses
system.cpu.icache.overall_accesses::total       283397                       # number of overall (read+write) accesses
system.cpu.icache.demand_miss_rate::.cpu.inst     0.040290                       # miss rate for demand accesses
system.cpu.icache.demand_miss_rate::total     0.040290                       # miss rate for demand accesses
system.cpu.icache.overall_miss_rate::.cpu.inst     0.040290                       # miss rate for overall accesses
system.cpu.icache.overall_miss_rate::total     0.040290                       # miss rate for overall accesses
system.cpu.icache.demand_avg_miss_latency::.cpu.inst 24201.324750                       # average overall miss latency
system.cpu.icache.demand_avg_miss_latency::total 24201.324750                       # average overall miss latency
system.cpu.icache.overall_avg_miss_latency::.cpu.inst 24201.324750                       # average overall miss latency
system.cpu.icache.overall_avg_miss_latency::total 24201.324750                       # average overall miss latency
system.cpu.icache.blocked_cycles::no_mshrs            0                       # number of cycles access was blocked
system.cpu.icache.blocked_cycles::no_targets            0                       # number of cycles access was blocked
system.cpu.icache.blocked::no_mshrs                 0                       # number of cycles access was blocked
system.cpu.icache.blocked::no_targets               0                       # number of cycles access was blocked
system.cpu.icache.avg_blocked_cycles::no_mshrs          nan                       # average number of cycles each access was blocked
system.cpu.icache.avg_blocked_cycles::no_targets          nan                       # average number of cycles each access was blocked
system.cpu.icache.writebacks::.writebacks        11097                       # number of writebacks
system.cpu.icache.writebacks::total             11097                       # number of writebacks
system.cpu.icache.demand_mshr_misses::.cpu.inst        11418                       # number of demand (read+write) MSHR misses
system.cpu.icache.demand_mshr_misses::total        11418                       # number of demand (read+write) MSHR misses
system.cpu.icache.overall_mshr_misses::.cpu.inst        11418                       # number of overall MSHR misses
system.cpu.icache.overall_mshr_misses::total        11418                       # number of overall MSHR misses
system.cpu.icache.demand_mshr_miss_latency::.cpu.inst    266832590                       # number of demand (read+write) MSHR miss cycles
system.cpu.icache.demand_mshr_miss_latency::total    266832590                       # number of demand (read+write) MSHR miss cycles
system.cpu.icache.overall_mshr_miss_latency::.cpu.inst    266832590                       # number of overall MSHR miss cycles
system.cpu.icache.overall_mshr_miss_latency::total    266832590                       # number of overall MSHR miss cycles
system.cpu.icache.demand_mshr_miss_rate::.cpu.inst     0.040290                       # mshr miss rate for demand accesses
system.cpu.icache.demand_mshr_miss_rate::total     0.040290                       # mshr miss rate for demand accesses
system.cpu.icache.overall_mshr_miss_rate::.cpu.inst     0.040290                       # mshr miss rate for overall accesses
system.cpu.icache.overall_mshr_miss_rate::total     0.040290                       # mshr miss rate for overall accesses
system.cpu.icache.demand_avg_mshr_miss_latency::.cpu.inst 23369.468383                       # average overall mshr miss latency
system.cpu.icache.demand_avg_mshr_miss_latency::total 23369.468383                       # average overall mshr miss latency
system.cpu.icache.overall_avg_mshr_miss_latency::.cpu.inst 23369.468383                       # average overall mshr miss latency
system.cpu.icache.overall_avg_mshr_miss_latency::total 23369.468383                       # average overall mshr miss latency
system.cpu.icache.replacements                  11097                       # number of replacements
system.cpu.icache.ReadReq_hits::.cpu.inst       271979                       # number of ReadReq hits
system.cpu.icache.ReadReq_hits::total          271979                       # number of ReadReq hits
system.cpu.icache.ReadReq_misses::.cpu.inst        11418                       # number of ReadReq misses
system.cpu.icache.ReadReq_misses::total         11418                       # number of ReadReq misses
system.cpu.icache.ReadReq_miss_latency::.cpu.inst    276330726                       # number of ReadReq miss cycles
system.cpu.icache.ReadReq_miss_latency::total    276330726                       # number of ReadReq miss cycles
system.cpu.icache.ReadReq_accesses::.cpu.inst       283397                       # number of ReadReq accesses(hits+misses)
system.cpu.icache.ReadReq_accesses::total       283397                       # number of ReadReq accesses(hits+misses)
system.cpu.icache.ReadReq_miss_rate::.cpu.inst     0.040290                       # miss rate for ReadReq accesses
system.cpu.icache.ReadReq_miss_rate::total     0.040290                       # miss rate for ReadReq accesses
system.cpu.icache.ReadReq_avg_miss_latency::.cpu.inst 24201.324750                       # average ReadReq miss latency
system.cpu.icache.ReadReq_avg_miss_latency::total 24201.324750                       # average ReadReq miss latency
system.cpu.icache.ReadReq_mshr_misses::.cpu.inst        11418                       # number of ReadReq MSHR misses
system.cpu.icache.ReadReq_mshr_misses::total        11418                       # number of ReadReq MSHR misses
system.cpu.icache.ReadReq_mshr_miss_latency::.cpu.inst    266832590                       # number of ReadReq MSHR miss cycles
system.cpu.icache.ReadReq_mshr_miss_latency::total    266832590                       # number of ReadReq MSHR miss cycles
system.cpu.icache.ReadReq_mshr_miss_rate::.cpu.inst     0.040290                       # mshr miss rate for ReadReq accesses
system.cpu.icache.ReadReq_mshr_miss_rate::total     0.040290                       # mshr miss rate for ReadReq accesses
system.cpu.icache.ReadReq_avg_mshr_miss_latency::.cpu.inst 23369.468383                       # average ReadReq mshr miss latency
system.cpu.icache.ReadReq_avg_mshr_miss_latency::total 23369.468383                       # average ReadReq mshr miss latency
system.cpu.icache.tags.pwrStateResidencyTicks::UNDEFINED    642036654                       # Cumulative time (in ticks) in various power states
system.cpu.icache.tags.tagsinuse           294.745315                       # Cycle average of tags in use
system.cpu.icache.tags.total_refs              283397                       # Total number of references to valid blocks.
system.cpu.icache.tags.sampled_refs             11418                       # Sample count of references to valid blocks.
system.cpu.icache.tags.avg_refs             24.820196                       # Average number of references to valid blocks.
system.cpu.icache.tags.warmup_cycle             77000                       # Cycle when the warmup percentage was hit.
system.cpu.icache.tags.occ_blocks::.cpu.inst   294.745315                       # Average occupied blocks per requestor
system.cpu.icache.tags.occ_percent::.cpu.inst     0.575674                       # Average percentage of cache occupancy
system.cpu.icache.tags.occ_percent::total     0.575674                       # Average percentage of cache occupancy
system.cpu.icache.tags.occ_task_id_blocks::1024          321                       # Occupied blocks per task id
system.cpu.icache.tags.age_task_id_blocks_1024::0           47                       # Occupied blocks per task id
system.cpu.icache.tags.age_task_id_blocks_1024::2          274                       # Occupied blocks per task id
system.cpu.icache.tags.occ_task_id_percent::1024     0.626953                       # Percentage of cache occupancy per task id
system.cpu.icache.tags.tag_accesses            578212                       # Number of tag accesses
system.cpu.icache.tags.data_accesses           578212                       # Number of data accesses
system.cpu.dtb.walker.pwrStateResidencyTicks::UNDEFINED    642036654                       # Cumulative time (in ticks) in various power states
system.cpu.dtb.stage2_mmu.stage2_tlb.walker.pwrStateResidencyTicks::UNDEFINED    642036654                       # Cumulative time (in ticks) in various power states
system.cpu.dcache.pwrStateResidencyTicks::UNDEFINED    642036654                       # Cumulative time (in ticks) in various power states
system.cpu.dcache.demand_hits::.cpu.data       307684                       # number of demand (read+write) hits
system.cpu.dcache.demand_hits::total           307684                       # number of demand (read+write) hits
system.cpu.dcache.overall_hits::.cpu.data       307704                       # number of overall hits
system.cpu.dcache.overall_hits::total          307704                       # number of overall hits
system.cpu.dcache.demand_misses::.cpu.data          231                       # number of demand (read+write) misses
system.cpu.dcache.demand_misses::total            231                       # number of demand (read+write) misses
system.cpu.dcache.overall_misses::.cpu.data          239                       # number of overall misses
system.cpu.dcache.overall_misses::total           239                       # number of overall misses
system.cpu.dcache.demand_miss_latency::.cpu.data     13422102                       # number of demand (read+write) miss cycles
system.cpu.dcache.demand_miss_latency::total     13422102                       # number of demand (read+write) miss cycles
system.cpu.dcache.overall_miss_latency::.cpu.data     13422102                       # number of overall miss cycles
system.cpu.dcache.overall_miss_latency::total     13422102                       # number of overall miss cycles
system.cpu.dcache.demand_accesses::.cpu.data       307915                       # number of demand (read+write) accesses
system.cpu.dcache.demand_accesses::total       307915                       # number of demand (read+write) accesses
system.cpu.dcache.overall_accesses::.cpu.data       307943                       # number of overall (read+write) accesses
system.cpu.dcache.overall_accesses::total       307943                       # number of overall (read+write) accesses
system.cpu.dcache.demand_miss_rate::.cpu.data     0.000750                       # miss rate for demand accesses
system.cpu.dcache.demand_miss_rate::total     0.000750                       # miss rate for demand accesses
system.cpu.dcache.overall_miss_rate::.cpu.data     0.000776                       # miss rate for overall accesses
system.cpu.dcache.overall_miss_rate::total     0.000776                       # miss rate for overall accesses
system.cpu.dcache.demand_avg_miss_latency::.cpu.data 58104.337662                       # average overall miss latency
system.cpu.dcache.demand_avg_miss_latency::total 58104.337662                       # average overall miss latency
system.cpu.dcache.overall_avg_miss_latency::.cpu.data 56159.422594                       # average overall miss latency
system.cpu.dcache.overall_avg_miss_latency::total 56159.422594                       # average overall miss latency
system.cpu.dcache.blocked_cycles::no_mshrs            0                       # number of cycles access was blocked
system.cpu.dcache.blocked_cycles::no_targets            0                       # number of cycles access was blocked
system.cpu.dcache.blocked::no_mshrs                 0                       # number of cycles access was blocked
system.cpu.dcache.blocked::no_targets               0                       # number of cycles access was blocked
system.cpu.dcache.avg_blocked_cycles::no_mshrs          nan                       # average number of cycles each access was blocked
system.cpu.dcache.avg_blocked_cycles::no_targets          nan                       # average number of cycles each access was blocked
system.cpu.dcache.demand_mshr_hits::.cpu.data           53                       # number of demand (read+write) MSHR hits
system.cpu.dcache.demand_mshr_hits::total           53                       # number of demand (read+write) MSHR hits
system.cpu.dcache.overall_mshr_hits::.cpu.data           53                       # number of overall MSHR hits
system.cpu.dcache.overall_mshr_hits::total           53                       # number of overall MSHR hits
system.cpu.dcache.demand_mshr_misses::.cpu.data          178                       # number of demand (read+write) MSHR misses
system.cpu.dcache.demand_mshr_misses::total          178                       # number of demand (read+write) MSHR misses
system.cpu.dcache.overall_mshr_misses::.cpu.data          184                       # number of overall MSHR misses
system.cpu.dcache.overall_mshr_misses::total          184                       # number of overall MSHR misses
system.cpu.dcache.demand_mshr_miss_latency::.cpu.data     10229634                       # number of demand (read+write) MSHR miss cycles
system.cpu.dcache.demand_mshr_miss_latency::total     10229634                       # number of demand (read+write) MSHR miss cycles
system.cpu.dcache.overall_mshr_miss_latency::.cpu.data     10577662                       # number of overall MSHR miss cycles
system.cpu.dcache.overall_mshr_miss_latency::total     10577662                       # number of overall MSHR miss cycles
system.cpu.dcache.demand_mshr_miss_rate::.cpu.data     0.000578                       # mshr miss rate for demand accesses
system.cpu.dcache.demand_mshr_miss_rate::total     0.000578                       # mshr miss rate for demand accesses
system.cpu.dcache.overall_mshr_miss_rate::.cpu.data     0.000598                       # mshr miss rate for overall accesses
system.cpu.dcache.overall_mshr_miss_rate::total     0.000598                       # mshr miss rate for overall accesses
system.cpu.dcache.demand_avg_mshr_miss_latency::.cpu.data 57469.853933                       # average overall mshr miss latency
system.cpu.dcache.demand_avg_mshr_miss_latency::total 57469.853933                       # average overall mshr miss latency
system.cpu.dcache.overall_avg_mshr_miss_latency::.cpu.data 57487.293478                       # average overall mshr miss latency
system.cpu.dcache.overall_avg_mshr_miss_latency::total 57487.293478                       # average overall mshr miss latency
system.cpu.dcache.replacements                      0                       # number of replacements
system.cpu.dcache.ReadReq_hits::.cpu.data       171689                       # number of ReadReq hits
system.cpu.dcache.ReadReq_hits::total          171689                       # number of ReadReq hits
system.cpu.dcache.ReadReq_misses::.cpu.data          112                       # number of ReadReq misses
system.cpu.dcache.ReadReq_misses::total           112                       # number of ReadReq misses
system.cpu.dcache.ReadReq_miss_latency::.cpu.data      6645697                       # number of ReadReq miss cycles
system.cpu.dcache.ReadReq_miss_latency::total      6645697                       # number of ReadReq miss cycles
system.cpu.dcache.ReadReq_accesses::.cpu.data       171801                       # number of ReadReq accesses(hits+misses)
system.cpu.dcache.ReadReq_accesses::total       171801                       # number of ReadReq accesses(hits+misses)
system.cpu.dcache.ReadReq_miss_rate::.cpu.data     0.000652                       # miss rate for ReadReq accesses
system.cpu.dcache.ReadReq_miss_rate::total     0.000652                       # miss rate for ReadReq accesses
system.cpu.dcache.ReadReq_avg_miss_latency::.cpu.data 59336.580357                       # average ReadReq miss latency
system.cpu.dcache.ReadReq_avg_miss_latency::total 59336.580357                       # average ReadReq miss latency
system.cpu.dcache.ReadReq_mshr_hits::.cpu.data            5                       # number of ReadReq MSHR hits
system.cpu.dcache.ReadReq_mshr_hits::total            5                       # number of ReadReq MSHR hits
system.cpu.dcache.ReadReq_mshr_misses::.cpu.data          107                       # number of ReadReq MSHR misses
system.cpu.dcache.ReadReq_mshr_misses::total          107                       # number of ReadReq MSHR misses
system.cpu.dcache.ReadReq_mshr_miss_latency::.cpu.data      6229399                       # number of ReadReq MSHR miss cycles
system.cpu.dcache.ReadReq_mshr_miss_latency::total      6229399                       # number of ReadReq MSHR miss cycles
system.cpu.dcache.ReadReq_mshr_miss_rate::.cpu.data     0.000623                       # mshr miss rate for ReadReq accesses
system.cpu.dcache.ReadReq_mshr_miss_rate::total     0.000623                       # mshr miss rate for ReadReq accesses
system.cpu.dcache.ReadReq_avg_mshr_miss_latency::.cpu.data 58218.682243                       # average ReadReq mshr miss latency
system.cpu.dcache.ReadReq_avg_mshr_miss_latency::total 58218.682243                       # average ReadReq mshr miss latency
system.cpu.dcache.WriteReq_hits::.cpu.data       135995                       # number of WriteReq hits
system.cpu.dcache.WriteReq_hits::total         135995                       # number of WriteReq hits
system.cpu.dcache.WriteReq_misses::.cpu.data          119                       # number of WriteReq misses
system.cpu.dcache.WriteReq_misses::total          119                       # number of WriteReq misses
system.cpu.dcache.WriteReq_miss_latency::.cpu.data      6776405                       # number of WriteReq miss cycles
system.cpu.dcache.WriteReq_miss_latency::total      6776405                       # number of WriteReq miss cycles
system.cpu.dcache.WriteReq_accesses::.cpu.data       136114                       # number of WriteReq accesses(hits+misses)
system.cpu.dcache.WriteReq_accesses::total       136114                       # number of WriteReq accesses(hits+misses)
system.cpu.dcache.WriteReq_miss_rate::.cpu.data     0.000874                       # miss rate for WriteReq accesses
system.cpu.dcache.WriteReq_miss_rate::total     0.000874                       # miss rate for WriteReq accesses
system.cpu.dcache.WriteReq_avg_miss_latency::.cpu.data 56944.579832                       # average WriteReq miss latency
system.cpu.dcache.WriteReq_avg_miss_latency::total 56944.579832                       # average WriteReq miss latency
system.cpu.dcache.WriteReq_mshr_hits::.cpu.data           48                       # number of WriteReq MSHR hits
system.cpu.dcache.WriteReq_mshr_hits::total           48                       # number of WriteReq MSHR hits
system.cpu.dcache.WriteReq_mshr_misses::.cpu.data           71                       # number of WriteReq MSHR misses
system.cpu.dcache.WriteReq_mshr_misses::total           71                       # number of WriteReq MSHR misses
system.cpu.dcache.WriteReq_mshr_miss_latency::.cpu.data      4000235                       # number of WriteReq MSHR miss cycles
system.cpu.dcache.WriteReq_mshr_miss_latency::total      4000235                       # number of WriteReq MSHR miss cycles
system.cpu.dcache.WriteReq_mshr_miss_rate::.cpu.data     0.000522                       # mshr miss rate for WriteReq accesses
system.cpu.dcache.WriteReq_mshr_miss_rate::total     0.000522                       # mshr miss rate for WriteReq accesses
system.cpu.dcache.WriteReq_avg_mshr_miss_latency::.cpu.data 56341.338028                       # average WriteReq mshr miss latency
system.cpu.dcache.WriteReq_avg_mshr_miss_latency::total 56341.338028                       # average WriteReq mshr miss latency
system.cpu.dcache.SoftPFReq_hits::.cpu.data           20                       # number of SoftPFReq hits
system.cpu.dcache.SoftPFReq_hits::total            20                       # number of SoftPFReq hits
system.cpu.dcache.SoftPFReq_misses::.cpu.data            8                       # number of SoftPFReq misses
system.cpu.dcache.SoftPFReq_misses::total            8                       # number of SoftPFReq misses
system.cpu.dcache.SoftPFReq_accesses::.cpu.data           28                       # number of SoftPFReq accesses(hits+misses)
system.cpu.dcache.SoftPFReq_accesses::total           28                       # number of SoftPFReq accesses(hits+misses)
system.cpu.dcache.SoftPFReq_miss_rate::.cpu.data     0.285714                       # miss rate for SoftPFReq accesses
system.cpu.dcache.SoftPFReq_miss_rate::total     0.285714                       # miss rate for SoftPFReq accesses
system.cpu.dcache.SoftPFReq_mshr_misses::.cpu.data            6                       # number of SoftPFReq MSHR misses
system.cpu.dcache.SoftPFReq_mshr_misses::total            6                       # number of SoftPFReq MSHR misses
system.cpu.dcache.SoftPFReq_mshr_miss_latency::.cpu.data       348028                       # number of SoftPFReq MSHR miss cycles
system.cpu.dcache.SoftPFReq_mshr_miss_latency::total       348028                       # number of SoftPFReq MSHR miss cycles
system.cpu.dcache.SoftPFReq_mshr_miss_rate::.cpu.data     0.214286                       # mshr miss rate for SoftPFReq accesses
system.cpu.dcache.SoftPFReq_mshr_miss_rate::total     0.214286                       # mshr miss rate for SoftPFReq accesses
system.cpu.dcache.SoftPFReq_avg_mshr_miss_latency::.cpu.data 58004.666667                       # average SoftPFReq mshr miss latency
system.cpu.dcache.SoftPFReq_avg_mshr_miss_latency::total 58004.666667                       # average SoftPFReq mshr miss latency
system.cpu.dcache.LoadLockedReq_hits::.cpu.data         2018                       # number of LoadLockedReq hits
system.cpu.dcache.LoadLockedReq_hits::total         2018                       # number of LoadLockedReq hits
system.cpu.dcache.LoadLockedReq_accesses::.cpu.data         2018                       # number of LoadLockedReq accesses(hits+misses)
system.cpu.dcache.LoadLockedReq_accesses::total         2018                       # number of LoadLockedReq accesses(hits+misses)
system.cpu.dcache.StoreCondReq_hits::.cpu.data         2018                       # number of StoreCondReq hits
system.cpu.dcache.StoreCondReq_hits::total         2018                       # number of StoreCondReq hits
system.cpu.dcache.StoreCondReq_accesses::.cpu.data         2018                       # number of StoreCondReq accesses(hits+misses)
system.cpu.dcache.StoreCondReq_accesses::total         2018                       # number of StoreCondReq accesses(hits+misses)
system.cpu.dcache.tags.pwrStateResidencyTicks::UNDEFINED    642036654                       # Cumulative time (in ticks) in various power states
system.cpu.dcache.tags.tagsinuse           164.739098                       # Cycle average of tags in use
system.cpu.dcache.tags.total_refs              311924                       # Total number of references to valid blocks.
system.cpu.dcache.tags.sampled_refs               184                       # Sample count of references to valid blocks.
system.cpu.dcache.tags.avg_refs           1695.239130                       # Average number of references to valid blocks.
system.cpu.dcache.tags.warmup_cycle            144000                       # Cycle when the warmup percentage was hit.
system.cpu.dcache.tags.occ_blocks::.cpu.data   164.739098                       # Average occupied blocks per requestor
system.cpu.dcache.tags.occ_percent::.cpu.data     0.160878                       # Average percentage of cache occupancy
system.cpu.dcache.tags.occ_percent::total     0.160878                       # Average percentage of cache occupancy
system.cpu.dcache.tags.occ_task_id_blocks::1024          184                       # Occupied blocks per task id
system.cpu.dcache.tags.age_task_id_blocks_1024::0           16                       # Occupied blocks per task id
system.cpu.dcache.tags.age_task_id_blocks_1024::2          168                       # Occupied blocks per task id
system.cpu.dcache.tags.occ_task_id_percent::1024     0.179688                       # Percentage of cache occupancy per task id
system.cpu.dcache.tags.tag_accesses            624142                       # Number of tag accesses
system.cpu.dcache.tags.data_accesses           624142                       # Number of data accesses
system.cpu.itb.walker.pwrStateResidencyTicks::UNDEFINED    642036654                       # Cumulative time (in ticks) in various power states
system.cpu.itb.stage2_mmu.stage2_tlb.walker.pwrStateResidencyTicks::UNDEFINED    642036654                       # Cumulative time (in ticks) in various power states

---------- End Simulation Statistics   ----------
